sad/pglib_opf_case14_ieee__sad.m
%%%%%%%%%%%%%%%%%%%%%%%%%%%%%%%%%%%%%%%%%%%%%%%%%%%%%%%%%%%%%%%%%%%%%%%%%%%
%%%%                                                                  %%%%%
%%%%    IEEE PES Power Grid Library - Optimal Power Flow - v17.08     %%%%%
%%%%          (https://github.com/power-grid-lib/pglib-opf)           %%%%%
%%%%             Benchmark Group - Small Angle Difference             %%%%%
%%%%                        30 - August - 2017                        %%%%%
%%%%                                                                  %%%%%
%%%%%%%%%%%%%%%%%%%%%%%%%%%%%%%%%%%%%%%%%%%%%%%%%%%%%%%%%%%%%%%%%%%%%%%%%%%
function mpc = pglib_opf_case14_ieee__sad
mpc.version = '2';
mpc.baseMVA = 100.0;

%% bus data
%	bus_i	type	Pd	Qd	Gs	Bs	area	Vm	Va	baseKV	zone	Vmax	Vmin
mpc.bus = [
	1	 3	 0.0	 0.0	 0.0	 0.0	 1	    1.00000	    0.00000	 0.0	 1	    1.06000	    0.94000;
	2	 2	 21.7	 12.7	 0.0	 0.0	 1	    1.00000	    0.00000	 0.0	 1	    1.06000	    0.94000;
	3	 2	 94.2	 19.0	 0.0	 0.0	 1	    1.00000	    0.00000	 0.0	 1	    1.06000	    0.94000;
	4	 1	 47.8	 -3.9	 0.0	 0.0	 1	    1.00000	    0.00000	 0.0	 1	    1.06000	    0.94000;
	5	 1	 7.6	 1.6	 0.0	 0.0	 1	    1.00000	    0.00000	 0.0	 1	    1.06000	    0.94000;
	6	 2	 11.2	 7.5	 0.0	 0.0	 1	    1.00000	    0.00000	 0.0	 1	    1.06000	    0.94000;
	7	 1	 0.0	 0.0	 0.0	 0.0	 1	    1.00000	    0.00000	 0.0	 1	    1.06000	    0.94000;
	8	 2	 0.0	 0.0	 0.0	 0.0	 1	    1.00000	    0.00000	 0.0	 1	    1.06000	    0.94000;
	9	 1	 29.5	 16.6	 0.0	 19.0	 1	    1.00000	    0.00000	 0.0	 1	    1.06000	    0.94000;
	10	 1	 9.0	 5.8	 0.0	 0.0	 1	    1.00000	    0.00000	 0.0	 1	    1.06000	    0.94000;
	11	 1	 3.5	 1.8	 0.0	 0.0	 1	    1.00000	    0.00000	 0.0	 1	    1.06000	    0.94000;
	12	 1	 6.1	 1.6	 0.0	 0.0	 1	    1.00000	    0.00000	 0.0	 1	    1.06000	    0.94000;
	13	 1	 13.5	 5.8	 0.0	 0.0	 1	    1.00000	    0.00000	 0.0	 1	    1.06000	    0.94000;
	14	 1	 14.9	 5.0	 0.0	 0.0	 1	    1.00000	    0.00000	 0.0	 1	    1.06000	    0.94000;
];

%% generator data
%	bus	Pg	Qg	Qmax	Qmin	Vg	mBase	status	Pmax	Pmin	Pc1	Pc2	Qc1min	Qc1max	Qc2min	Qc2max	ramp_agc	ramp_10	ramp_30	ramp_q	apf
mpc.gen = [
	1	 170.0	 5.0	 10.0	 0.0	 1.06	 100.0	 1	 340.0	 0.0	 0.0	 0.0	 0.0	 0.0	 0.0	 0.0	 0.0	 0.0	 0.0	 0.0	 0.0;
	2	 29.5	 0.0	 30.0	 -30.0	 1.045	 100.0	 1	 59.0	 0.0	 0.0	 0.0	 0.0	 0.0	 0.0	 0.0	 0.0	 0.0	 0.0	 0.0	 0.0;
	3	 0.0	 20.0	 40.0	 0.0	 1.01	 100.0	 1	 0.0	 0.0	 0.0	 0.0	 0.0	 0.0	 0.0	 0.0	 0.0	 0.0	 0.0	 0.0	 0.0;
	6	 0.0	 9.0	 24.0	 -6.0	 1.07	 100.0	 1	 0.0	 0.0	 0.0	 0.0	 0.0	 0.0	 0.0	 0.0	 0.0	 0.0	 0.0	 0.0	 0.0;
	8	 0.0	 9.0	 24.0	 -6.0	 1.09	 100.0	 1	 0.0	 0.0	 0.0	 0.0	 0.0	 0.0	 0.0	 0.0	 0.0	 0.0	 0.0	 0.0	 0.0;
];

%% generator cost data
%	2	startup	shutdown	n	c(n-1)	...	c0
mpc.gencost = [
	2	 0.0	 0.0	 3	   0.000000	  22.879299	   0.000000;
	2	 0.0	 0.0	 3	   0.000000	  36.375423	   0.000000;
	2	 0.0	 0.0	 3	   0.000000	   0.000000	   0.000000;
	2	 0.0	 0.0	 3	   0.000000	   0.000000	   0.000000;
	2	 0.0	 0.0	 3	   0.000000	   0.000000	   0.000000;
];

%% branch data
%	fbus	tbus	r	x	b	rateA	rateB	rateC	ratio	angle	status	angmin	angmax
mpc.branch = [
	1	 2	 0.01938	 0.05917	 0.0528	 472.0	 472.0	 472.0	 0.0	 0.0	 1	 -8.609013	 8.609013;
	1	 5	 0.05403	 0.22304	 0.0492	 128.0	 128.0	 128.0	 0.0	 0.0	 1	 -8.609013	 8.609013;
	2	 3	 0.04699	 0.19797	 0.0438	 145.0	 145.0	 145.0	 0.0	 0.0	 1	 -8.609013	 8.609013;
	2	 4	 0.05811	 0.17632	 0.034	 158.0	 158.0	 158.0	 0.0	 0.0	 1	 -8.609013	 8.609013;
	2	 5	 0.05695	 0.17388	 0.0346	 161.0	 161.0	 161.0	 0.0	 0.0	 1	 -8.609013	 8.609013;
	3	 4	 0.06701	 0.17103	 0.0128	 160.0	 160.0	 160.0	 0.0	 0.0	 1	 -8.609013	 8.609013;
	4	 5	 0.01335	 0.04211	 0.0	 664.0	 664.0	 664.0	 0.0	 0.0	 1	 -8.609013	 8.609013;
	4	 7	 0.0	 0.20912	 0.0	 141.0	 141.0	 141.0	 0.978	 0.0	 1	 -8.609013	 8.609013;
	4	 9	 0.0	 0.55618	 0.0	 53.0	 53.0	 53.0	 0.969	 0.0	 1	 -8.609013	 8.609013;
	5	 6	 0.0	 0.25202	 0.0	 117.0	 117.0	 117.0	 0.932	 0.0	 1	 -8.609013	 8.609013;
	6	 11	 0.09498	 0.1989	 0.0	 134.0	 134.0	 134.0	 0.0	 0.0	 1	 -8.609013	 8.609013;
	6	 12	 0.12291	 0.25581	 0.0	 104.0	 104.0	 104.0	 0.0	 0.0	 1	 -8.609013	 8.609013;
	6	 13	 0.06615	 0.13027	 0.0	 201.0	 201.0	 201.0	 0.0	 0.0	 1	 -8.609013	 8.609013;
	7	 8	 0.0	 0.17615	 0.0	 167.0	 167.0	 167.0	 0.0	 0.0	 1	 -8.609013	 8.609013;
	7	 9	 0.0	 0.11001	 0.0	 267.0	 267.0	 267.0	 0.0	 0.0	 1	 -8.609013	 8.609013;
	9	 10	 0.03181	 0.0845	 0.0	 325.0	 325.0	 325.0	 0.0	 0.0	 1	 -8.609013	 8.609013;
	9	 14	 0.12711	 0.27038	 0.0	 99.0	 99.0	 99.0	 0.0	 0.0	 1	 -8.609013	 8.609013;
	10	 11	 0.08205	 0.19207	 0.0	 141.0	 141.0	 141.0	 0.0	 0.0	 1	 -8.609013	 8.609013;
	12	 13	 0.22092	 0.19988	 0.0	 99.0	 99.0	 99.0	 0.0	 0.0	 1	 -8.609013	 8.609013;
	13	 14	 0.17093	 0.34802	 0.0	 76.0	 76.0	 76.0	 0.0	 0.0	 1	 -8.609013	 8.609013;
];

% INFO    : === Translation Options ===
% INFO    : Phase Angle Bound:           8.609013 (deg.)
% INFO    : 
% INFO    : === Writing Matpower Case File Notes ===
